Version 4
SHEET 1 880 680
WIRE 336 96 240 96
WIRE 512 96 416 96
WIRE 240 256 240 96
WIRE 240 256 160 256
WIRE 336 256 240 256
WIRE 512 272 512 96
WIRE 512 272 400 272
WIRE 576 272 512 272
WIRE 336 288 240 288
WIRE 240 368 240 288
FLAG 576 272 Vout
SYMBOL OpAmps/opamp2 368 208 R0
SYMATTR InstName U1
SYMBOL res 224 352 R0
SYMATTR InstName R1
SYMBOL res 432 80 R90
WINDOW 0 0 56 VBottom 2
WINDOW 3 32 56 VTop 2
SYMATTR InstName R2
SYMBOL res 176 240 R90
WINDOW 0 0 56 VBottom 2
WINDOW 3 32 56 VTop 2
SYMATTR InstName R3
SYMBOL cap 288 160 R0
SYMATTR InstName C1
SYMBOL cap 416 336 R0
SYMATTR InstName C2
SYMBOL res 336 336 R0
SYMATTR InstName R4
